321
45-64.pdb
N         23.14100       29.18700       19.24100
C         22.12600       29.06200       18.18300
C         20.83500       28.62900       18.90400
O         20.82100       27.73400       19.74900
C         22.49400       28.05700       17.10900
C         21.44700       27.86900       16.02600
C         21.32500       28.81300       15.00500
C         20.63800       26.73500       16.05300
C         20.36900       28.64800       14.00100
C         19.67700       26.53900       15.05100
C         19.59300       27.46500       14.02100
N         19.81000       29.37800       18.57800
C         18.44300       29.14300       19.08300
C         18.45300       28.94100       20.59100
O         17.86000       27.99400       21.12800
C         17.86400       27.97700       18.34600
N         19.17200       29.80800       21.24300
C         19.39900       29.89400       22.65500
C         20.08300       28.72900       23.32100
O         19.99100       28.58400       24.56100
N         20.80100       27.93100       22.57800
C         21.55000       26.79600       23.13300
C         23.04600       27.08700       22.91300
O         23.38300       27.62700       21.87000
C         21.24200       25.51900       22.39100
C         19.76200       25.07700       22.45500
C         19.63400       23.88500       21.53100
C         18.79100       24.22100       20.31300
N         17.44000       24.65500       20.82700
N         23.88000       26.72700       23.85100
C         25.34900       26.87200       23.64300
C         25.74300       25.58600       22.92200
O         25.32500       24.48900       23.37800
C         26.07000       27.02500       24.96000
C         27.55300       27.35600       24.69500
C         28.26200       27.57600       26.02000
O         29.18900       26.84000       26.33500
N         27.77700       28.58500       26.73900
N         26.46500       25.68900       21.83300
C         26.82600       24.52100       21.01200
C         27.99400       23.78100       21.64300
O         28.90400       24.44400       22.09800
C         27.04300       24.99200       19.57100
C         25.93100       25.84400       18.95900
C         26.20300       26.08300       17.47100
C         24.57700       25.19000       19.07900
N         27.94200       22.44800       21.64800
C         29.01500       21.65700       22.28800
C         29.94200       21.10600       21.24000
O         29.47000       20.67700       20.19000
C         28.34800       20.54000       23.06600
C         29.24700       19.45600       23.70500
C         28.72200       19.04700       25.06600
O         29.13900       18.13200       25.74600
O         27.77700       19.84200       25.36700
N         31.23300       21.09000       21.45900
C         32.26200       20.67000       20.51400
C         32.12800       19.36400       19.75000
O         32.54600       19.31700       18.55800
C         33.63800       20.71600       21.24200
C         34.17400       22.12900       21.35400
O         35.25200       22.32200       21.95800
O         33.54400       23.08600       20.88300
N         31.69700       18.31100       20.40600
C         31.56800       16.96200       19.82500
C         30.32000       16.69800       19.05100
O         30.19800       15.65700       18.36600
N         29.34000       17.59400       19.07600
C         28.10800       17.43900       18.27600
C         28.37500       17.99900       16.88700
O         29.32600       18.78600       16.69000
C         26.92600       18.19100       18.89200
C         26.62100       17.79900       20.35200
C         26.01000       16.37000       20.28000
N         26.97500       15.52100       20.94200
C         27.60300       14.42300       20.65500
N         27.47900       13.73300       19.53700
N         28.51900       13.96700       21.55000
N         27.51000       17.68900       15.95400
C         27.57400       18.19200       14.56300
C         26.48200       19.28000       14.43200
O         25.60900       19.38800       15.28700
C         27.29900       17.05500       13.53300
O         25.92500       16.61100       13.91300
C         28.23600       15.86400       13.55800
N         26.58500       20.06300       13.37800
C         25.59400       21.10900       13.07200
C         24.24100       20.43600       12.85700
O         23.26400       20.95100       13.32900
C         26.08400       21.88800       11.83300
C         27.42600       22.61600       11.90200
C         27.71800       23.34100       10.57800
C         27.38000       23.72100       12.95500
N         24.24000       19.23300       12.24600
C         22.92400       18.58300       12.02500
C         22.22900       18.24400       13.32500
O         20.96300       18.25300       13.39500
C         23.05900       17.32600       11.15400
O         23.91400       16.39500       11.75500
N         22.99700       17.97800       14.36600
C         22.41800       17.63800       15.69300
C         21.46000       18.73700       16.16300
O         20.49700       18.50600       16.90000
C         23.46100       17.33100       16.74100
C         24.18400       16.01600       16.61900
O         25.30300       15.89400       17.15200
O         23.57200       15.10700       15.97500
N         21.84600       19.95400       15.90500
C         21.07900       21.14900       16.25100
C         20.14200       21.59000       15.14900
O         19.49900       22.64500       15.32100
C         22.08500       22.25400       16.58100
C         22.94500       21.95100       17.78500
C         24.27200       21.54400       17.64400
C         22.43700       22.15700       19.06500
C         25.05200       21.28500       18.77600
C         23.20400       21.90700       20.19200
C         24.51700       21.47000       20.03000
O         25.24800       21.30200       21.19100
N         19.99300       20.88400       14.04900
C         19.06500       21.35200       12.99900
C         19.44200       22.74500       12.51000
O         18.57100       23.61000       12.28900
C         17.58600       21.28200       13.46100
C         16.57600       21.25800       12.31500
O         15.44000       21.81900       12.37800
N         16.92400       20.58600       11.21600
N         20.71700       22.96400       12.26000
C         21.18400       24.26300       11.69000
C         21.11000       24.11100       10.17300
O         21.84100       23.19800        9.68600
C         22.65000       24.51600       12.17200
C         22.66200       24.81900       13.69900
C         23.37600       25.64500       11.40900
C         24.12300       24.98100       14.19500
N         20.29100       24.87500        9.50700
C         20.08100       24.77300        8.03300
C         20.82200       25.91400        7.33200
O         21.32300       26.83000        8.00800
C         18.59900       24.73600        7.72700
C         17.81900       23.43400        7.90000
C         16.50900       23.52900        7.11600
O         15.44600       22.98000        7.43300
N         16.53900       24.29300        6.00900
N         20.92400       25.86200        6.00600
C         21.65600       26.84700        5.24000
C         21.12700       28.24000        5.57400
O         19.95800       28.46500        5.84200
C         21.63100       26.64200        3.73100
C         20.21000       26.42300        3.17500
C         20.26800       26.58900        1.65600
C         19.20200       25.85700        0.89100
N         17.88400       26.54400        1.07500
N         22.09900       29.16300        5.60500
C         21.90700       30.56300        5.88100
C         21.46600       30.95300        7.26100
O         21.06600       32.11200        7.53300
C         21.02300       31.22300        4.78400
C         21.86100       31.34200        3.47400
C         21.15600       30.72600        2.31100
O         19.94200       30.79300        2.17000
O         21.95400       30.15200        1.53500
H         23.12300       28.49700       20.07500
H         22.01700       30.05300       17.63100
H         23.45900       28.40600       16.61200
H         22.59600       27.05000       17.63400
H         21.98700       29.69300       14.99100
H         20.75300       25.99400       16.86000
H         20.22400       29.41200       13.22100
H         19.00300       25.66800       15.08100
H         18.89700       27.27200       13.18900
H         19.97400       30.21000       17.90500
H         17.78300       30.05300       18.89400
H         16.72600       28.03200       18.38100
H         18.21300       28.00200       17.26100
H         18.21200       27.00800       18.83500
H         19.66200       30.56200       20.64000
H         20.03900       30.81900       22.84200
H         18.35700       29.92100       23.11600
H         20.84600       28.11300       21.51200
H         21.27100       26.67100       24.23100
H         21.52100       25.66800       21.29600
H         21.84600       24.69700       22.89900
H         19.48400       24.78200       23.52000
H         19.06400       25.92100       22.14100
H         20.67400       23.56800       21.18700
H         19.12300       23.04000       22.10100
H         19.27600       25.06600       19.72100
H         18.69600       23.32100       19.61900
H         16.82200       23.75100       21.06200
H         17.57300       25.26800       21.75500
H         23.50400       26.32200       24.78200
H         25.62600       27.80200       23.04400
H         25.59300       27.86900       25.55900
H         25.99600       26.05300       25.55100
H         28.04300       26.48900       24.14000
H         27.62600       28.30000       24.06100
H         26.94500       29.16700       26.36300
H         28.21400       28.82400       27.70000
H         26.80900       26.66900       21.52600
H         25.98900       23.74800       20.97200
H         28.00300       25.60600       19.54800
H         27.07600       24.04100       18.94300
H         25.92200       26.82600       19.53800
H         26.30100       25.08100       16.93600
H         25.34000       26.67300       17.01700
H         27.17100       26.67300       17.35200
H         24.70000       24.05700       19.06800
H         24.08600       25.51000       20.05700
H         23.92200       25.51000       18.20200
H         27.10800       21.94100       21.18000
H         29.64000       22.30300       22.98900
H         27.75200       21.02400       23.90800
H         27.73900       19.97700       22.28500
H         29.27000       18.54200       23.02400
H         30.29600       19.88400       23.83400
H         27.50000       20.61800       24.69400
H         31.56900       21.42000       22.43400
H         32.13700       21.42100       19.66600
H         33.51400       20.28500       22.29000
H         34.38100       20.10500       20.63000
H         35.77800       21.50100       22.38300
H         31.41800       18.44200       21.44400
H         32.45300       16.79800       19.12600
H         31.53500       16.24800       20.71300
H         29.44800       18.46900       19.70500
H         27.83600       16.33300       18.24000
H         27.15700       19.30700       18.86200
H         26.00600       17.91500       18.27900
H         27.57800       17.79200       20.97100
H         25.91000       18.53900       20.84900
H         25.00700       16.33500       20.82000
H         25.81200       16.04100       19.20700
H         27.24000       15.89500       21.92300
H         26.80500       14.07500       18.76200
H         28.05100       12.82500       19.39500
H         28.70300       14.51700       22.46400
H         26.69700       17.02300       16.21600
H         28.61500       18.60300       14.34500
H         27.44100       17.45600       12.47600
H         25.88400       15.51200       13.92400
H         27.62700       14.90100       13.57800
H         28.89300       15.87800       12.62700
H         28.89300       15.91700       14.48800
H         27.42900       19.93300       12.71200
H         25.47400       21.85700       13.92400
H         26.15200       21.14200       10.97400
H         25.32200       22.72800       11.71700
H         28.21400       21.82700       12.14000
H         26.73500       23.61800       10.07100
H         28.31800       24.28800       10.78700
H         28.31800       22.65400        9.89300
H         26.29400       23.97300       13.19500
H         27.90600       23.36500       13.90200
H         27.90600       24.65000       12.55400
H         25.16100       18.76100       11.93000
H         22.27800       19.34200       11.47200
H         22.03000       16.85400       11.01600
H         23.49600       17.62600       10.14500
H         23.31700       15.61900       12.25600
H         24.07300       18.00800       14.25100
H         21.82700       16.67300       15.55200
H         24.24400       18.15900       16.70100
H         22.88500       17.26300       17.72200
H         25.73200       16.71100       17.68200
H         22.79500       20.08900       15.40200
H         20.40900       20.91600       17.14400
H         22.76700       22.40100       15.67900
H         21.48300       23.19000       16.82800
H         24.70700       21.42600       16.63900
H         21.40600       22.52600       19.18400
H         26.09000       20.93400       18.66400
H         22.78200       22.05100       21.19900
H         26.27100       21.01700       21.13900
H         20.54800       19.96400       13.91400
H         19.16500       20.64100       12.11400
H         17.44800       20.33400       14.08000
H         17.38300       22.23100       14.05900
H         17.88500       20.09000       11.16600
H         16.24500       20.53700       10.37400
H         21.44000       22.18700       12.47200
H         20.55100       25.15000       12.02400
H         23.22600       23.55800       11.94800
H         22.08700       25.78300       13.89700
H         22.17100       23.95400       14.25600
H         22.60700       26.34200       10.93800
H         24.02900       26.23500       12.13400
H         24.02900       25.19200       10.59100
H         24.58800       23.95200       14.35300
H         24.72700       25.55500       13.41700
H         24.12800       25.55500       15.18000
H         19.73200       25.62500       10.05300
H         20.51700       23.80000        7.62900
H         18.10300       25.51000        8.40200
H         18.55700       24.92100        6.60300
H         18.43800       22.56200        7.50500
H         17.59500       23.26400        9.00500
H         17.45400       24.79500        5.72200
H         15.64800       24.40600        5.40500
H         20.44000       25.05000        5.47900
H         22.74800       26.72500        5.54500
H         22.07800       27.56400        3.23200
H         22.23400       25.70100        3.50500
H         19.84900       25.37400        3.43600
H         19.48600       27.17700        3.62900
H         20.17200       27.70000        1.41900
H         21.26100       26.13700        1.32600
H         19.47100       25.84500       -0.21700
H         19.12700       24.78800        1.27900
H         17.07500       25.77700        1.18800
H         17.92200       27.18400        1.99300
H         23.10900       28.82900        5.40700
H         22.96700       30.98200        5.84800
H         20.10200       30.57800        4.59400
H         20.68600       32.25700        5.12600
H         22.04600       32.44500        3.25200
H         22.84400       30.78700        3.62900
H         22.99600       30.14900        1.75000
H         23.05200       30.12600       19.62900
H         29.01500       13.13700       21.36700
H         21.49200       30.24500        8.01200
